Circuit: * C:\Users\phild\Documents\Uni\S4\APP4\S4_APP4\S4iAPP4_prob\add3b_test.asc

WARNING: Less than two connections to node SEL.  This node is used by VSEL.
WARNING: Less than two connections to node B.  This node is used by VB.
Direct Newton iteration for .op point succeeded.

t1: time=2.38478e-009 at 2.38478e-009
t2: time=2.51216e-009 at 2.51216e-009
t3: time=4.43286e-009 at 4.43286e-009
t4: time=4.30569e-009 at 4.30569e-009
transition_up: abs(t2-t1)=1.27383e-010
transition_down: abs(t4-t3)=1.27169e-010

Measurement "ratio" FAIL'ed


Date: Tue Mar 19 23:22:20 2024
Total elapsed time: 0.642 seconds.

tnom = 27
temp = 27
method = modified trap
totiter = 2992
traniter = 2960
tranpoints = 1346
accept = 1247
rejected = 99
matrix size = 91
fillins = 34
solver = Normal
Thread vector: 221.6/117.7[8] 29.5/16.9[8] 13.9/7.5[8] 1.2/2.2[1]  2592/500
Matrix Compiler1: 11.77 KB object code size  5.3/3.0/[1.2]
Matrix Compiler2: 11.55 KB object code size  2.1/3.2/[0.7]

