Circuit: * C:\Users\phild\Documents\Uni\S4\APP4\S4_APP4\S4iAPP4_prob\alu_test_dc.asc

WARNING: Node X1:X3:N002 is floating.


Date: Tue Mar 19 22:07:09 2024
Total elapsed time: 0.280 seconds.

tnom = 27
temp = 27
method = trap
totiter = 267
traniter = 0
tranpoints = 0
accept = 0
rejected = 0
matrix size = 120
fillins = 44
solver = Normal

