Circuit: * C:\Users\phild\Documents\Uni\S4\APP4\S4_APP4\S4iAPP4_prob\alu_test_trans.asc

WARNING: Node X1:X3:N002 is floating.
WARNING: Node X1:X3:N007 is floating.

Direct Newton iteration for .op point succeeded.

t1: time=2.78649e-009 at 2.78649e-009
t2: time=2.85222e-009 at 2.85222e-009
t3: time=5.11586e-009 at 5.11586e-009
t4: time=5.05827e-009 at 5.05827e-009
transition_up: abs(t2-t1)=6.57271e-011
transition_down: abs(t4-t3)=5.75898e-011

Measurement "ratio" FAIL'ed


Date: Tue Mar 19 23:15:47 2024
Total elapsed time: 2.621 seconds.

tnom = 27
temp = 27
method = modified trap
totiter = 8873
traniter = 8829
tranpoints = 3289
accept = 2755
rejected = 534
matrix size = 136
fillins = 49
solver = Normal
Thread vector: 362.3/229.9[8] 49.9/33.4[8] 21.4/9.8[8] 0.8/2.2[1]  2592/500
Matrix Compiler1: 18.77 KB object code size  9.1/4.5/[2.2]
Matrix Compiler2: 17.01 KB object code size  4.1/5.0/[1.4]

