Circuit: * C:\Users\phild\Documents\Uni\S4\APP4\S4_APP4\S4iAPP4_prob\and3b_test.asc

WARNING: Less than two connections to node SEL.  This node is used by VSEL1.
Direct Newton iteration for .op point succeeded.

t1: time=2.05992e-009 at 2.05992e-009
t2: time=2.14649e-009 at 2.14649e-009
t3: time=3.13341e-009 at 3.13341e-009
t4: time=3.05829e-009 at 3.05829e-009
transition_up: abs(t2-t1)=8.65697e-011
transition_down: abs(t4-t3)=7.51192e-011

Measurement "ratio" FAIL'ed


Date: Tue Mar 19 23:00:07 2024
Total elapsed time: 0.302 seconds.

tnom = 27
temp = 27
method = modified trap
totiter = 3052
traniter = 3045
tranpoints = 1364
accept = 1251
rejected = 113
matrix size = 31
fillins = 0
solver = Normal
Matrix Compiler1: 1.21 KB object code size  0.9/0.2/[0.1]
Matrix Compiler2: 2.50 KB object code size  0.2/0.7/[0.2]

