Circuit: * C:\Users\phild\Documents\Uni\S4\APP4\S4_APP4\S4iAPP4_prob\mux2x3b_test.asc

Direct Newton iteration for .op point succeeded.

Date: Mon Mar 18 16:44:42 2024
Total elapsed time: 0.409 seconds.

tnom = 27
temp = 27
method = modified trap
totiter = 2605
traniter = 2582
tranpoints = 1099
accept = 1081
rejected = 18
matrix size = 52
fillins = 0
solver = Normal
Thread vector: 79.8/54.4[6] 11.7/5.4[6] 4.8/6.8[1] 0.5/4.3[1]  2592/500
Matrix Compiler1: 3.39 KB object code size  1.4/0.9/[0.4]
Matrix Compiler2: 5.26 KB object code size  1.0/1.6/[0.6]

