Circuit: * C:\Users\phild\Documents\Uni\S4\APP4\S4_APP4\S4iAPP4_prob\mux2x3b_test.asc

WARNING: Node O2 is floating.
WARNING: Node O3 is floating.
WARNING: Node X2:N001 is floating.
WARNING: Node X2:NC_02 is floating.
WARNING: Node X2:NC_03 is floating.
WARNING: Node X2:N002 is floating.
WARNING: Node X2:NC_05 is floating.
WARNING: Node X2:NC_06 is floating.
WARNING: Node X2:N007 is floating.
WARNING: Node X2:NC_08 is floating.
WARNING: Node X2:NC_09 is floating.
WARNING: Node X2:N008 is floating.
WARNING: Node X2:NC_11 is floating.
WARNING: Node X2:NC_12 is floating.
WARNING: Node X2:NC_13 is floating.
WARNING: Node X2:NC_14 is floating.
WARNING: Node X2:NC_16 is floating.
WARNING: Node X2:N006 is floating.

WARNING: Less than two connections to node X2:NC_01.  This node is used by M:X2:2.
WARNING: Less than two connections to node X2:N001.  This node is used by M:X2:2.
WARNING: Less than two connections to node X2:NC_02.  This node is used by M:X2:2.
WARNING: Less than two connections to node X2:NC_03.  This node is used by M:X2:2.
WARNING: Less than two connections to node X2:NC_04.  This node is used by M:X2:3.
WARNING: Less than two connections to node X2:N002.  This node is used by M:X2:3.
WARNING: Less than two connections to node X2:NC_05.  This node is used by M:X2:3.
WARNING: Less than two connections to node X2:NC_06.  This node is used by M:X2:3.
WARNING: Less than two connections to node X2:NC_07.  This node is used by M:X2:5.
WARNING: Less than two connections to node X2:N007.  This node is used by M:X2:5.
WARNING: Less than two connections to node X2:NC_08.  This node is used by M:X2:5.
WARNING: Less than two connections to node X2:NC_09.  This node is used by M:X2:5.
WARNING: Less than two connections to node X2:NC_10.  This node is used by M:X2:6.
WARNING: Less than two connections to node X2:N008.  This node is used by M:X2:6.
WARNING: Less than two connections to node X2:NC_11.  This node is used by M:X2:6.
WARNING: Less than two connections to node X2:NC_12.  This node is used by M:X2:6.
WARNING: Less than two connections to node X2:NC_13.  This node is used by M:X2:7.
WARNING: Less than two connections to node X2:NC_14.  This node is used by M:X2:7.
WARNING: Less than two connections to node X2:NC_15.  This node is used by M:X2:8.
WARNING: Less than two connections to node X2:NC_16.  This node is used by M:X2:8.
Direct Newton iteration for .op point succeeded.
Ignoring empty pin current: Ix(x2:a1)
Ignoring empty pin current: Ix(x2:a2)
Ignoring empty pin current: Ix(x2:b1)
Ignoring empty pin current: Ix(x2:b2)
Ignoring empty pin current: Ix(x2:o2)
Ignoring empty pin current: Ix(x2:o3)
Ignoring empty pin current: Ix(x2:a1)
Ignoring empty pin current: Ix(x2:a2)
Ignoring empty pin current: Ix(x2:b1)
Ignoring empty pin current: Ix(x2:b2)
Ignoring empty pin current: Ix(x2:o2)
Ignoring empty pin current: Ix(x2:o3)

Date: Mon Mar 18 16:20:30 2024
Total elapsed time: 0.231 seconds.

tnom = 27
temp = 27
method = modified trap
totiter = 2477
traniter = 2461
tranpoints = 1137
accept = 1103
rejected = 34
matrix size = 49
fillins = 0
solver = Normal
Matrix Compiler1: 2.97 KB object code size  0.5/0.3/[0.2]
Matrix Compiler2: 3.57 KB object code size  0.3/0.4/[0.2]

