Circuit: * C:\Users\phild\Documents\Uni\S4\APP4\S4_APP4\S4iAPP4_prob\mux2x3b_test.asc

Direct Newton iteration for .op point succeeded.

t1: time=1.10023e-009 at 1.10023e-009
t2: time=1.19379e-009 at 1.19379e-009
t3: time=2.25283e-009 at 2.25283e-009
t4: time=2.16164e-009 at 2.16164e-009
transition_up: abs(t2-t1)=9.35548e-011
transition_down: abs(t4-t3)=9.11953e-011

Measurement "ratio" FAIL'ed


Date: Tue Mar 19 11:28:02 2024
Total elapsed time: 1.070 seconds.

tnom = 27
temp = 27
method = modified trap
totiter = 2450
traniter = 2433
tranpoints = 1099
accept = 1081
rejected = 18
matrix size = 31
fillins = 0
solver = Normal
Matrix Compiler1: 1.28 KB object code size  1.4/0.8/[0.8]
Matrix Compiler2: 2.66 KB object code size  0.9/1.3/[0.8]

