Circuit: * C:\Users\phild\Documents\Uni\S4\APP4\S4_APP4\S4iAPP4_prob\nand_test.asc

Direct Newton iteration for .op point succeeded.

t1: time=3.01274e-009 at 3.01274e-009
t2: time=3.09969e-009 at 3.09969e-009
t3: time=2.09784e-009 at 2.09784e-009
t4: time=2.01743e-009 at 2.01743e-009
transition_up: abs(t2-t1)=8.69544e-011
transition_down: abs(t4-t3)=8.04084e-011

Measurement "ratio" FAIL'ed


Date: Tue Mar 19 11:33:46 2024
Total elapsed time: 0.435 seconds.

tnom = 27
temp = 27
method = modified trap
totiter = 2583
traniter = 2577
tranpoints = 1244
accept = 1177
rejected = 67
matrix size = 8
fillins = 0
solver = Normal
Matrix Compiler1: 282 bytes object code size  0.2/0.1/[0.1]
Matrix Compiler2: 642 bytes object code size  0.1/0.2/[0.1]

