Circuit: * C:\Users\phild\Documents\Uni\S4\APP4\S4_APP4\S4iAPP4_prob\nand_test.asc

Direct Newton iteration for .op point succeeded.

t1: time=3.0164e-009 at 3.0164e-009
t2: time=3.1311e-009 at 3.1311e-009
t3: time=2.0861e-009 at 2.0861e-009
t4: time=2.01446e-009 at 2.01446e-009
transition_up: abs(t2-t1)=1.14708e-010
transition_down: abs(t4-t3)=7.1641e-011

Measurement "ratio" FAIL'ed


Date: Mon Mar 18 12:02:23 2024
Total elapsed time: 0.124 seconds.

tnom = 27
temp = 27
method = modified trap
totiter = 2589
traniter = 2583
tranpoints = 1244
accept = 1177
rejected = 67
matrix size = 8
fillins = 0
solver = Normal
Matrix Compiler1: 282 bytes object code size  0.1/0.1/[0.0]
Matrix Compiler2: 642 bytes object code size  0.1/0.1/[0.0]

