Circuit: * C:\Users\phild\Documents\Uni\S4\APP4\S4_APP4\S4iAPP4_prob\pad_buffer_test.asc

Direct Newton iteration for .op point succeeded.

Date: Tue Mar 19 22:26:41 2024
Total elapsed time: 0.159 seconds.

tnom = 27
temp = 27
method = modified trap
totiter = 2658
traniter = 2649
tranpoints = 1230
accept = 1144
rejected = 86
matrix size = 10
fillins = 0
solver = Normal
Matrix Compiler1: 652 bytes object code size  0.2/0.1/[0.1]
Matrix Compiler2: 834 bytes object code size  0.1/0.1/[0.1]

