Circuit: * C:\Users\phild\Documents\Uni\S4\APP4\S4_APP4\S4iAPP4_prob\xor_test.asc

Direct Newton iteration for .op point succeeded.

t1: time=1.06586e-009 at 1.06586e-009
t2: time=1.19551e-009 at 1.19551e-009
t3: time=2.13127e-009 at 2.13127e-009
t4: time=2.01599e-009 at 2.01599e-009
transition_up: abs(t2-t1)=1.29653e-010
transition_down: abs(t4-t3)=1.15278e-010

Measurement "ratio" FAIL'ed


Date: Tue Mar 19 10:01:58 2024
Total elapsed time: 0.147 seconds.

tnom = 27
temp = 27
method = modified trap
totiter = 2731
traniter = 2703
tranpoints = 1254
accept = 1185
rejected = 69
matrix size = 13
fillins = 0
solver = Normal
Matrix Compiler1: 924 bytes object code size  0.2/0.1/[0.1]
Matrix Compiler2: 1.38 KB object code size  0.1/0.2/[0.1]

